/*--------------------------------*- C++ -*----------------------------------*\
| =========                 |                                                 |
| \\      /  F ield         | OpenFOAM: The Open Source CFD Toolbox           |
|  \\    /   O peration     | Version:  v2012                                 |
|   \\  /    A nd           | Website:  www.openfoam.com                      |
|    \\/     M anipulation  |                                                 |
\*---------------------------------------------------------------------------*/
FoamFile
{
    version     2.0;
    format      ascii;
    class       polyBoundaryMesh;
    location    "0.5/polyMesh";
    object      boundary;
}
// * * * * * * * * * * * * * * * * * * * * * * * * * * * * * * * * * * * * * //

3
(
    movingWall
    {
        type            wall;
        inGroups        1(wall);
        nFaces          1231;
        startFace       19404;
    }
    fixedWalls
    {
        type            wall;
        inGroups        1(wall);
        nFaces          1248;
        startFace       20635;
    }
    frontAndBack
    {
        type            empty;
        inGroups        1(empty);
        nFaces          2462;
        startFace       21883;
    }
)

// ************************************************************************* //
