/*--------------------------------*- C++ -*----------------------------------*\
| =========                 |                                                 |
| \\      /  F ield         | OpenFOAM: The Open Source CFD Toolbox           |
|  \\    /   O peration     | Version:  2212                                  |
|   \\  /    A nd           | Website:  www.openfoam.com                      |
|    \\/     M anipulation  |                                                 |
\*---------------------------------------------------------------------------*/
FoamFile
{
    version     2.0;
    format      ascii;
    arch        "LSB;label=32;scalar=64";
    class       polyBoundaryMesh;
    location    "constant/polyMesh";
    object      boundary;
}
// * * * * * * * * * * * * * * * * * * * * * * * * * * * * * * * * * * * * * //

6
(
    frontAndBack
    {
        type            empty;
        nFaces          62410;
        startFace       62015;
    }
    walls
    {
        type            patch;
        physicalType    patch;
        nFaces          316;
        startFace       124425;
    }
    bottom
    {
        type            patch;
        physicalType    patch;
        nFaces          158;
        startFace       124741;
    }
    top
    {
        type            patch;
        physicalType    patch;
        nFaces          158;
        startFace       124899;
    }
    inlet
    {
        type            patch;
        physicalType    patch;
        nFaces          79;
        startFace       125057;
    }
    outlet
    {
        type            patch;
        physicalType    patch;
        nFaces          79;
        startFace       125136;
    }
)

// ************************************************************************* //
