/*--------------------------------*- C++ -*----------------------------------*\
| =========                 |                                                 |
| \\      /  F ield         | OpenFOAM: The Open Source CFD Toolbox           |
|  \\    /   O peration     | Version:  v2212                                 |
|   \\  /    A nd           | Website:  www.openfoam.com                      |
|    \\/     M anipulation  |                                                 |
\*---------------------------------------------------------------------------*/
FoamFile
{
    version     2.0;
    format      ascii;
    class       volVectorField;
    object      U;
}
// * * * * * * * * * * * * * * * * * * * * * * * * * * * * * * * * * * * * * //

dimensions      [0 1 -1 0 0 0 0];

internalField   uniform (0 0 0);

boundaryField
{
    inlet
    {
        type            uniformFixedValue;
        uniformValue    
        {
            type            sine;
            frequency       7.4; 
            level           (200 0 0);
            scale           (100 0 0);
        }
    }

    outlet
    {
        type            zeroGradient;
    }

    top
    {
        type            slip;
    }
    
    bottom
    {
        type            slip;
    }
    
    walls
    {
        type            fixedValue;
        value 		uniform (0 0 0);
    }

    frontAndBack
    {
        type            zeroGradient;
    }
}
