/*--------------------------------*- C++ -*----------------------------------*\
| =========                 |                                                 |
| \\      /  F ield         | OpenFOAM: The Open Source CFD Toolbox           |
|  \\    /   O peration     | Version:  v2012                                 |
|   \\  /    A nd           | Website:  www.openfoam.com                      |
|    \\/     M anipulation  |                                                 |
\*---------------------------------------------------------------------------*/
FoamFile
{
    version     2.0;
    format      ascii;
    class       polyBoundaryMesh;
    location    "0.05/polyMesh";
    object      boundary;
}
// * * * * * * * * * * * * * * * * * * * * * * * * * * * * * * * * * * * * * //

3
(
    movingWall
    {
        type            wall;
        inGroups        1(wall);
        nFaces          220;
        startFace       705;
    }
    fixedWalls
    {
        type            wall;
        inGroups        1(wall);
        nFaces          225;
        startFace       925;
    }
    frontAndBack
    {
        type            empty;
        inGroups        1(empty);
        nFaces          440;
        startFace       1150;
    }
)

// ************************************************************************* //
