/*--------------------------------*- C++ -*----------------------------------*\
| =========                 |                                                 |
| \\      /  F ield         | OpenFOAM: The Open Source CFD Toolbox           |
|  \\    /   O peration     | Version:  v2012                                 |
|   \\  /    A nd           | Website:  www.openfoam.com                      |
|    \\/     M anipulation  |                                                 |
\*---------------------------------------------------------------------------*/
FoamFile
{
    version     2.0;
    format      ascii;
    class       polyBoundaryMesh;
    location    "1.6/polyMesh";
    object      boundary;
}
// * * * * * * * * * * * * * * * * * * * * * * * * * * * * * * * * * * * * * //

3
(
    movingWall
    {
        type            wall;
        inGroups        1(wall);
        nFaces          1276;
        startFace       20637;
    }
    fixedWalls
    {
        type            wall;
        inGroups        1(wall);
        nFaces          1293;
        startFace       21913;
    }
    frontAndBack
    {
        type            empty;
        inGroups        1(empty);
        nFaces          2552;
        startFace       23206;
    }
)

// ************************************************************************* //
