/*--------------------------------*- C++ -*----------------------------------*\
| =========                 |                                                 |
| \\      /  F ield         | OpenFOAM: The Open Source CFD Toolbox           |
|  \\    /   O peration     | Version:  v2012                                 |
|   \\  /    A nd           | Website:  www.openfoam.com                      |
|    \\/     M anipulation  |                                                 |
\*---------------------------------------------------------------------------*/
FoamFile
{
    version     2.0;
    format      ascii;
    class       polyBoundaryMesh;
    location    "0.45/polyMesh";
    object      boundary;
}
// * * * * * * * * * * * * * * * * * * * * * * * * * * * * * * * * * * * * * //

3
(
    movingWall
    {
        type            wall;
        inGroups        1(wall);
        nFaces          1300;
        startFace       20850;
    }
    fixedWalls
    {
        type            wall;
        inGroups        1(wall);
        nFaces          1308;
        startFace       22150;
    }
    frontAndBack
    {
        type            empty;
        inGroups        1(empty);
        nFaces          2600;
        startFace       23458;
    }
)

// ************************************************************************* //
